$AGARD 445.6 Weak 3 Flutter Solution
SOL 103
TIME 3000
CEND
$ECHO = none
$LINE = 999999999
SPC     = 2                      $ symmetric
METHOD  = 100
VECTOR(SORT1,REAL)=ALL
SUBCASE 60
  FMETHOD = 600                        $ Mach 0.60
  SDAMPING = 1
SUBCASE 80
  FMETHOD = 800                        $ Mach 0.80
  SDAMPING = 1
SUBCASE 90
  FMETHOD = 900                        $ Mach 0.90
  SDAMPING = 1
SUBCASE 95
  FMETHOD = 950                        $ Mach 0.95
  SDAMPING = 1
SUBCASE 120
  FMETHOD = 1200                       $ Mach 1.20
  SDAMPING = 1
DISPLACEMENT = ALL
BEGIN BULK
$include 'appb_flut_air.bdf'
$$PARAM    POST    0
PARAM    POST    -1
PARAM    AUTOSPC YES
PARAM    INREL   0
PARAM    ALTRED  NO
PARAM   COUPMASS -1
PARAM    K6ROT   0.
PARAM,WTMASS,0.00259
PARAM,NOCOMPS,-1
PARAM,GRDPNT,0
PARAM   PRTMAXIM YES
SPCADD   2       1
SPC1     1       123456  3       THRU    9
EIGRL,100,,,8
$mat8   mid     e1      e2      nu12    g12     g1z     g2z     rho     cont
$2345678$2345678$2345678$2345678$2345678$2345678$2345678$2345678$2345678
$mat8         100 470720. 150000.   0.31   59745.                0.014824
$mat8         100 501756. 150000.   0.31   59745.                0.014824
mat8         100 500321. 150000.   0.31   65000.                0.014824
$pcomp  pid     z0      nsm     sb      ft      tref    ge      lam     cont
$contd  mid     t1      theta   souti   mid     t1      theta   souti   cont
pcomp        201                                                        +
+            100 0.38036   48.65
pcomp        202                                                        +
+            100  0.6299   48.65
pcomp        203                                                        +
+            100 0.77194   48.65
pcomp        204                                                        +
+            100 0.84707   48.65
pcomp        205                                                        +
+            100 0.86175   48.65
pcomp        206                                                        +
+            100 0.80648   48.65
pcomp        207                                                        +
+            100 0.68473   48.65
pcomp        208                                                        +
+            100 0.51592   48.65
pcomp        209                                                        +
+            100 0.31474   48.65
pcomp        210                                                        +
+            100 0.10793   48.65
pcomp        211                                                        +
+            100 0.36721   48.65
pcomp        212                                                        +
+            100 0.60812   48.65
pcomp        213                                                        +
+            100 0.74525   48.65
pcomp        214                                                        +
+            100 0.81778   48.65
pcomp        215                                                        +
+            100 0.83195   48.65
pcomp        216                                                        +
+            100  0.7786   48.65
pcomp        217                                                        +
+            100 0.66106   48.65
pcomp        218                                                        +
+            100 0.49809   48.65
pcomp        219                                                        +
+            100 0.30385   48.65
pcomp        220                                                        +
+            100  0.1042   48.65
$ ... 160 like lines cut
$grid         id      cp      x       y       z
grid           1          0.0000  0.0000  0.0000
grid           2          2.1960  0.0000  0.0000
grid           3          4.3920  0.0000  0.0000
grid           4          6.5880  0.0000  0.0000
grid           5          8.7840  0.0000  0.0000
grid           6         10.7500  0.0000  0.0000
grid           7         13.1760  0.0000  0.0000
grid           8         15.3720  0.0000  0.0000
grid           9         17.5680  0.0000  0.0000
grid          10         19.7640  0.0000  0.0000
grid          11         21.9600  0.0000  0.0000
grid          12          3.1866  3.0000  0.0000
grid          13          5.3080  3.0000  0.0000
grid          14          7.4293  3.0000  0.0000
grid          15          9.5507  3.0000  0.0000
grid          16         11.6720  3.0000  0.0000
grid          17         13.6250  3.0000  0.0000
grid          18         15.9148  3.0000  0.0000
grid          19         18.0361  3.0000  0.0000
grid          20         20.1574  3.0000  0.0000
$ ... 101 like lines cut
$cquad4 eid     pid     g1      g2      g3      g4      theta   zoffs
cquad4       301     201       1       2      13      12
cquad4       302     202       2       3      14      13
cquad4       303     203       3       4      15      14
cquad4       304     204       4       5      16      15
cquad4       305     205       5       6      17      16
cquad4       306     206       6       7      18      17
cquad4       307     207       7       8      19      18
cquad4       308     208       8       9      20      19
cquad4       309     209       9      10      21      20
cquad4       310     210      10      11      22      21
cquad4       311     211      12      13      24      23
cquad4       312     212      13      14      25      24
cquad4       313     213      14      15      26      25
cquad4       314     214      15      16      27      26
cquad4       315     215      16      17      28      27
cquad4       316     216      17      18      29      28
cquad4       317     217      18      19      30      29
cquad4       318     218      19      20      31      30
cquad4       319     219      20      21      32      31
cquad4       320     220      21      22      33      32
$ ... 80 like lines cut
ENDDATA
